
---------- Begin Simulation Statistics ----------
sim_seconds                                  0.000068                       # Number of seconds simulated
sim_ticks                                    67605461                       # Number of ticks simulated
final_tick                                   67605461                       # Number of ticks from beginning of simulation (restored from checkpoints and never reset)
sim_freq                                 1000000000000                       # Frequency of simulated ticks
host_inst_rate                                  79540                       # Simulator instruction rate (inst/s)
host_op_rate                                    91948                       # Simulator op (including micro ops) rate (op/s)
host_tick_rate                              660331187                       # Simulator tick rate (ticks/s)
host_mem_usage                                 648084                       # Number of bytes of host memory used
host_seconds                                     0.10                       # Real time elapsed on the host
sim_insts                                        8142                       # Number of instructions simulated
sim_ops                                          9413                       # Number of ops (including micro ops) simulated
system.clk_domain.voltage_domain.voltage            1                       # Voltage in Volts
system.clk_domain.clock                          1111                       # Clock period in ticks
system.mem_ctrl.pwrStateResidencyTicks::UNDEFINED     67605461                       # Cumulative time (in ticks) in various power states
system.mem_ctrl.bytes_read::.cpu.inst           22528                       # Number of bytes read from this memory
system.mem_ctrl.bytes_read::.cpu.data           10688                       # Number of bytes read from this memory
system.mem_ctrl.bytes_read::total               33216                       # Number of bytes read from this memory
system.mem_ctrl.bytes_inst_read::.cpu.inst        22528                       # Number of instructions bytes read from this memory
system.mem_ctrl.bytes_inst_read::total          22528                       # Number of instructions bytes read from this memory
system.mem_ctrl.num_reads::.cpu.inst              352                       # Number of read requests responded to by this memory
system.mem_ctrl.num_reads::.cpu.data              167                       # Number of read requests responded to by this memory
system.mem_ctrl.num_reads::total                  519                       # Number of read requests responded to by this memory
system.mem_ctrl.bw_read::.cpu.inst          333227518                       # Total read bandwidth from this memory (bytes/s)
system.mem_ctrl.bw_read::.cpu.data          158093737                       # Total read bandwidth from this memory (bytes/s)
system.mem_ctrl.bw_read::total              491321256                       # Total read bandwidth from this memory (bytes/s)
system.mem_ctrl.bw_inst_read::.cpu.inst     333227518                       # Instruction read bandwidth from this memory (bytes/s)
system.mem_ctrl.bw_inst_read::total         333227518                       # Instruction read bandwidth from this memory (bytes/s)
system.mem_ctrl.bw_total::.cpu.inst         333227518                       # Total bandwidth to/from this memory (bytes/s)
system.mem_ctrl.bw_total::.cpu.data         158093737                       # Total bandwidth to/from this memory (bytes/s)
system.mem_ctrl.bw_total::total             491321256                       # Total bandwidth to/from this memory (bytes/s)
system.mem_ctrl.avgPriority_.cpu.inst::samples       352.00                       # Average QoS priority value for accepted requests
system.mem_ctrl.avgPriority_.cpu.data::samples       167.00                       # Average QoS priority value for accepted requests
system.mem_ctrl.priorityMinLatency       0.000000018750                       # per QoS priority minimum request to response latency (s)
system.mem_ctrl.priorityMaxLatency       0.000000537092                       # per QoS priority maximum request to response latency (s)
system.mem_ctrl.numReadWriteTurnArounds             0                       # Number of turnarounds from READ to WRITE
system.mem_ctrl.numWriteReadTurnArounds             0                       # Number of turnarounds from WRITE to READ
system.mem_ctrl.numStayReadState                 1053                       # Number of times bus staying in READ state
system.mem_ctrl.numStayWriteState                   0                       # Number of times bus staying in WRITE state
system.mem_ctrl.readReqs                          519                       # Number of read requests accepted
system.mem_ctrl.writeReqs                           0                       # Number of write requests accepted
system.mem_ctrl.readBursts                        519                       # Number of DRAM read bursts, including those serviced by the write queue
system.mem_ctrl.writeBursts                         0                       # Number of DRAM write bursts, including those merged in the write queue
system.mem_ctrl.bytesReadDRAM                   33216                       # Total number of bytes read from DRAM
system.mem_ctrl.bytesReadWrQ                        0                       # Total number of bytes read from write queue
system.mem_ctrl.bytesWritten                        0                       # Total number of bytes written to DRAM
system.mem_ctrl.bytesReadSys                    33216                       # Total read bytes from the system interface side
system.mem_ctrl.bytesWrittenSys                     0                       # Total written bytes from the system interface side
system.mem_ctrl.servicedByWrQ                       0                       # Number of DRAM read bursts serviced by the write queue
system.mem_ctrl.mergedWrBursts                      0                       # Number of DRAM write bursts merged with an existing one
system.mem_ctrl.neitherReadNorWriteReqs             0                       # Number of requests that are neither read nor write
system.mem_ctrl.perBankRdBursts::0                 49                       # Per bank write bursts
system.mem_ctrl.perBankRdBursts::1                 31                       # Per bank write bursts
system.mem_ctrl.perBankRdBursts::2                 13                       # Per bank write bursts
system.mem_ctrl.perBankRdBursts::3                116                       # Per bank write bursts
system.mem_ctrl.perBankRdBursts::4                 30                       # Per bank write bursts
system.mem_ctrl.perBankRdBursts::5                 16                       # Per bank write bursts
system.mem_ctrl.perBankRdBursts::6                 28                       # Per bank write bursts
system.mem_ctrl.perBankRdBursts::7                 15                       # Per bank write bursts
system.mem_ctrl.perBankRdBursts::8                 18                       # Per bank write bursts
system.mem_ctrl.perBankRdBursts::9                 66                       # Per bank write bursts
system.mem_ctrl.perBankRdBursts::10                23                       # Per bank write bursts
system.mem_ctrl.perBankRdBursts::11                18                       # Per bank write bursts
system.mem_ctrl.perBankRdBursts::12                10                       # Per bank write bursts
system.mem_ctrl.perBankRdBursts::13                48                       # Per bank write bursts
system.mem_ctrl.perBankRdBursts::14                26                       # Per bank write bursts
system.mem_ctrl.perBankRdBursts::15                12                       # Per bank write bursts
system.mem_ctrl.perBankWrBursts::0                  0                       # Per bank write bursts
system.mem_ctrl.perBankWrBursts::1                  0                       # Per bank write bursts
system.mem_ctrl.perBankWrBursts::2                  0                       # Per bank write bursts
system.mem_ctrl.perBankWrBursts::3                  0                       # Per bank write bursts
system.mem_ctrl.perBankWrBursts::4                  0                       # Per bank write bursts
system.mem_ctrl.perBankWrBursts::5                  0                       # Per bank write bursts
system.mem_ctrl.perBankWrBursts::6                  0                       # Per bank write bursts
system.mem_ctrl.perBankWrBursts::7                  0                       # Per bank write bursts
system.mem_ctrl.perBankWrBursts::8                  0                       # Per bank write bursts
system.mem_ctrl.perBankWrBursts::9                  0                       # Per bank write bursts
system.mem_ctrl.perBankWrBursts::10                 0                       # Per bank write bursts
system.mem_ctrl.perBankWrBursts::11                 0                       # Per bank write bursts
system.mem_ctrl.perBankWrBursts::12                 0                       # Per bank write bursts
system.mem_ctrl.perBankWrBursts::13                 0                       # Per bank write bursts
system.mem_ctrl.perBankWrBursts::14                 0                       # Per bank write bursts
system.mem_ctrl.perBankWrBursts::15                 0                       # Per bank write bursts
system.mem_ctrl.numRdRetry                          0                       # Number of times read queue was full causing retry
system.mem_ctrl.numWrRetry                          0                       # Number of times write queue was full causing retry
system.mem_ctrl.totGap                       67463253                       # Total gap between requests
system.mem_ctrl.readPktSize::0                      0                       # Read request sizes (log2)
system.mem_ctrl.readPktSize::1                      0                       # Read request sizes (log2)
system.mem_ctrl.readPktSize::2                      0                       # Read request sizes (log2)
system.mem_ctrl.readPktSize::3                      0                       # Read request sizes (log2)
system.mem_ctrl.readPktSize::4                      0                       # Read request sizes (log2)
system.mem_ctrl.readPktSize::5                      0                       # Read request sizes (log2)
system.mem_ctrl.readPktSize::6                    519                       # Read request sizes (log2)
system.mem_ctrl.writePktSize::0                     0                       # Write request sizes (log2)
system.mem_ctrl.writePktSize::1                     0                       # Write request sizes (log2)
system.mem_ctrl.writePktSize::2                     0                       # Write request sizes (log2)
system.mem_ctrl.writePktSize::3                     0                       # Write request sizes (log2)
system.mem_ctrl.writePktSize::4                     0                       # Write request sizes (log2)
system.mem_ctrl.writePktSize::5                     0                       # Write request sizes (log2)
system.mem_ctrl.writePktSize::6                     0                       # Write request sizes (log2)
system.mem_ctrl.rdQLenPdf::0                      435                       # What read queue length does an incoming req see
system.mem_ctrl.rdQLenPdf::1                       77                       # What read queue length does an incoming req see
system.mem_ctrl.rdQLenPdf::2                        7                       # What read queue length does an incoming req see
system.mem_ctrl.rdQLenPdf::3                        0                       # What read queue length does an incoming req see
system.mem_ctrl.rdQLenPdf::4                        0                       # What read queue length does an incoming req see
system.mem_ctrl.rdQLenPdf::5                        0                       # What read queue length does an incoming req see
system.mem_ctrl.rdQLenPdf::6                        0                       # What read queue length does an incoming req see
system.mem_ctrl.rdQLenPdf::7                        0                       # What read queue length does an incoming req see
system.mem_ctrl.rdQLenPdf::8                        0                       # What read queue length does an incoming req see
system.mem_ctrl.rdQLenPdf::9                        0                       # What read queue length does an incoming req see
system.mem_ctrl.rdQLenPdf::10                       0                       # What read queue length does an incoming req see
system.mem_ctrl.rdQLenPdf::11                       0                       # What read queue length does an incoming req see
system.mem_ctrl.rdQLenPdf::12                       0                       # What read queue length does an incoming req see
system.mem_ctrl.rdQLenPdf::13                       0                       # What read queue length does an incoming req see
system.mem_ctrl.rdQLenPdf::14                       0                       # What read queue length does an incoming req see
system.mem_ctrl.rdQLenPdf::15                       0                       # What read queue length does an incoming req see
system.mem_ctrl.rdQLenPdf::16                       0                       # What read queue length does an incoming req see
system.mem_ctrl.rdQLenPdf::17                       0                       # What read queue length does an incoming req see
system.mem_ctrl.rdQLenPdf::18                       0                       # What read queue length does an incoming req see
system.mem_ctrl.rdQLenPdf::19                       0                       # What read queue length does an incoming req see
system.mem_ctrl.rdQLenPdf::20                       0                       # What read queue length does an incoming req see
system.mem_ctrl.rdQLenPdf::21                       0                       # What read queue length does an incoming req see
system.mem_ctrl.rdQLenPdf::22                       0                       # What read queue length does an incoming req see
system.mem_ctrl.rdQLenPdf::23                       0                       # What read queue length does an incoming req see
system.mem_ctrl.rdQLenPdf::24                       0                       # What read queue length does an incoming req see
system.mem_ctrl.rdQLenPdf::25                       0                       # What read queue length does an incoming req see
system.mem_ctrl.rdQLenPdf::26                       0                       # What read queue length does an incoming req see
system.mem_ctrl.rdQLenPdf::27                       0                       # What read queue length does an incoming req see
system.mem_ctrl.rdQLenPdf::28                       0                       # What read queue length does an incoming req see
system.mem_ctrl.rdQLenPdf::29                       0                       # What read queue length does an incoming req see
system.mem_ctrl.rdQLenPdf::30                       0                       # What read queue length does an incoming req see
system.mem_ctrl.rdQLenPdf::31                       0                       # What read queue length does an incoming req see
system.mem_ctrl.wrQLenPdf::0                        0                       # What write queue length does an incoming req see
system.mem_ctrl.wrQLenPdf::1                        0                       # What write queue length does an incoming req see
system.mem_ctrl.wrQLenPdf::2                        0                       # What write queue length does an incoming req see
system.mem_ctrl.wrQLenPdf::3                        0                       # What write queue length does an incoming req see
system.mem_ctrl.wrQLenPdf::4                        0                       # What write queue length does an incoming req see
system.mem_ctrl.wrQLenPdf::5                        0                       # What write queue length does an incoming req see
system.mem_ctrl.wrQLenPdf::6                        0                       # What write queue length does an incoming req see
system.mem_ctrl.wrQLenPdf::7                        0                       # What write queue length does an incoming req see
system.mem_ctrl.wrQLenPdf::8                        0                       # What write queue length does an incoming req see
system.mem_ctrl.wrQLenPdf::9                        0                       # What write queue length does an incoming req see
system.mem_ctrl.wrQLenPdf::10                       0                       # What write queue length does an incoming req see
system.mem_ctrl.wrQLenPdf::11                       0                       # What write queue length does an incoming req see
system.mem_ctrl.wrQLenPdf::12                       0                       # What write queue length does an incoming req see
system.mem_ctrl.wrQLenPdf::13                       0                       # What write queue length does an incoming req see
system.mem_ctrl.wrQLenPdf::14                       0                       # What write queue length does an incoming req see
system.mem_ctrl.wrQLenPdf::15                       0                       # What write queue length does an incoming req see
system.mem_ctrl.wrQLenPdf::16                       0                       # What write queue length does an incoming req see
system.mem_ctrl.wrQLenPdf::17                       0                       # What write queue length does an incoming req see
system.mem_ctrl.wrQLenPdf::18                       0                       # What write queue length does an incoming req see
system.mem_ctrl.wrQLenPdf::19                       0                       # What write queue length does an incoming req see
system.mem_ctrl.wrQLenPdf::20                       0                       # What write queue length does an incoming req see
system.mem_ctrl.wrQLenPdf::21                       0                       # What write queue length does an incoming req see
system.mem_ctrl.wrQLenPdf::22                       0                       # What write queue length does an incoming req see
system.mem_ctrl.wrQLenPdf::23                       0                       # What write queue length does an incoming req see
system.mem_ctrl.wrQLenPdf::24                       0                       # What write queue length does an incoming req see
system.mem_ctrl.wrQLenPdf::25                       0                       # What write queue length does an incoming req see
system.mem_ctrl.wrQLenPdf::26                       0                       # What write queue length does an incoming req see
system.mem_ctrl.wrQLenPdf::27                       0                       # What write queue length does an incoming req see
system.mem_ctrl.wrQLenPdf::28                       0                       # What write queue length does an incoming req see
system.mem_ctrl.wrQLenPdf::29                       0                       # What write queue length does an incoming req see
system.mem_ctrl.wrQLenPdf::30                       0                       # What write queue length does an incoming req see
system.mem_ctrl.wrQLenPdf::31                       0                       # What write queue length does an incoming req see
system.mem_ctrl.wrQLenPdf::32                       0                       # What write queue length does an incoming req see
system.mem_ctrl.wrQLenPdf::33                       0                       # What write queue length does an incoming req see
system.mem_ctrl.wrQLenPdf::34                       0                       # What write queue length does an incoming req see
system.mem_ctrl.wrQLenPdf::35                       0                       # What write queue length does an incoming req see
system.mem_ctrl.wrQLenPdf::36                       0                       # What write queue length does an incoming req see
system.mem_ctrl.wrQLenPdf::37                       0                       # What write queue length does an incoming req see
system.mem_ctrl.wrQLenPdf::38                       0                       # What write queue length does an incoming req see
system.mem_ctrl.wrQLenPdf::39                       0                       # What write queue length does an incoming req see
system.mem_ctrl.wrQLenPdf::40                       0                       # What write queue length does an incoming req see
system.mem_ctrl.wrQLenPdf::41                       0                       # What write queue length does an incoming req see
system.mem_ctrl.wrQLenPdf::42                       0                       # What write queue length does an incoming req see
system.mem_ctrl.wrQLenPdf::43                       0                       # What write queue length does an incoming req see
system.mem_ctrl.wrQLenPdf::44                       0                       # What write queue length does an incoming req see
system.mem_ctrl.wrQLenPdf::45                       0                       # What write queue length does an incoming req see
system.mem_ctrl.wrQLenPdf::46                       0                       # What write queue length does an incoming req see
system.mem_ctrl.wrQLenPdf::47                       0                       # What write queue length does an incoming req see
system.mem_ctrl.wrQLenPdf::48                       0                       # What write queue length does an incoming req see
system.mem_ctrl.wrQLenPdf::49                       0                       # What write queue length does an incoming req see
system.mem_ctrl.wrQLenPdf::50                       0                       # What write queue length does an incoming req see
system.mem_ctrl.wrQLenPdf::51                       0                       # What write queue length does an incoming req see
system.mem_ctrl.wrQLenPdf::52                       0                       # What write queue length does an incoming req see
system.mem_ctrl.wrQLenPdf::53                       0                       # What write queue length does an incoming req see
system.mem_ctrl.wrQLenPdf::54                       0                       # What write queue length does an incoming req see
system.mem_ctrl.wrQLenPdf::55                       0                       # What write queue length does an incoming req see
system.mem_ctrl.wrQLenPdf::56                       0                       # What write queue length does an incoming req see
system.mem_ctrl.wrQLenPdf::57                       0                       # What write queue length does an incoming req see
system.mem_ctrl.wrQLenPdf::58                       0                       # What write queue length does an incoming req see
system.mem_ctrl.wrQLenPdf::59                       0                       # What write queue length does an incoming req see
system.mem_ctrl.wrQLenPdf::60                       0                       # What write queue length does an incoming req see
system.mem_ctrl.wrQLenPdf::61                       0                       # What write queue length does an incoming req see
system.mem_ctrl.wrQLenPdf::62                       0                       # What write queue length does an incoming req see
system.mem_ctrl.wrQLenPdf::63                       0                       # What write queue length does an incoming req see
system.mem_ctrl.bytesPerActivate::samples           91                       # Bytes accessed per row activation
system.mem_ctrl.bytesPerActivate::mean     338.285714                       # Bytes accessed per row activation
system.mem_ctrl.bytesPerActivate::gmean    234.438676                       # Bytes accessed per row activation
system.mem_ctrl.bytesPerActivate::stdev    287.847579                       # Bytes accessed per row activation
system.mem_ctrl.bytesPerActivate::0-127            18     19.78%     19.78% # Bytes accessed per row activation
system.mem_ctrl.bytesPerActivate::128-255           23     25.27%     45.05% # Bytes accessed per row activation
system.mem_ctrl.bytesPerActivate::256-383           18     19.78%     64.84% # Bytes accessed per row activation
system.mem_ctrl.bytesPerActivate::384-511           11     12.09%     76.92% # Bytes accessed per row activation
system.mem_ctrl.bytesPerActivate::512-639            4      4.40%     81.32% # Bytes accessed per row activation
system.mem_ctrl.bytesPerActivate::640-767            6      6.59%     87.91% # Bytes accessed per row activation
system.mem_ctrl.bytesPerActivate::768-895            3      3.30%     91.21% # Bytes accessed per row activation
system.mem_ctrl.bytesPerActivate::896-1023            1      1.10%     92.31% # Bytes accessed per row activation
system.mem_ctrl.bytesPerActivate::1024-1151            7      7.69%    100.00% # Bytes accessed per row activation
system.mem_ctrl.bytesPerActivate::total            91                       # Bytes accessed per row activation
system.mem_ctrl.masterReadBytes::.cpu.inst        22528                       # Per-master bytes read from memory
system.mem_ctrl.masterReadBytes::.cpu.data        10688                       # Per-master bytes read from memory
system.mem_ctrl.masterReadRate::.cpu.inst 333227518.410088181496                       # Per-master bytes read from memory rate (Bytes/sec)
system.mem_ctrl.masterReadRate::.cpu.data 158093737.427513420582                       # Per-master bytes read from memory rate (Bytes/sec)
system.mem_ctrl.masterReadAccesses::.cpu.inst          352                       # Per-master read serviced memory accesses
system.mem_ctrl.masterReadAccesses::.cpu.data          167                       # Per-master read serviced memory accesses
system.mem_ctrl.masterReadTotalLat::.cpu.inst     11070533                       # Per-master read total memory access latency
system.mem_ctrl.masterReadTotalLat::.cpu.data      5433601                       # Per-master read total memory access latency
system.mem_ctrl.masterReadAvgLat::.cpu.inst     31450.38                       # Per-master read average memory access latency
system.mem_ctrl.masterReadAvgLat::.cpu.data     32536.53                       # Per-master read average memory access latency
system.mem_ctrl.totQLat                       6772884                       # Total ticks spent queuing
system.mem_ctrl.totMemAccLat                 16504134                       # Total ticks spent from burst creation until serviced by the DRAM
system.mem_ctrl.totBusLat                     2595000                       # Total ticks spent in databus transfers
system.mem_ctrl.avgQLat                      13049.87                       # Average queueing delay per DRAM burst
system.mem_ctrl.avgBusLat                     5000.00                       # Average bus latency per DRAM burst
system.mem_ctrl.avgMemAccLat                 31799.87                       # Average memory access latency per DRAM burst
system.mem_ctrl.avgRdBW                        491.32                       # Average DRAM read bandwidth in MiByte/s
system.mem_ctrl.avgWrBW                          0.00                       # Average achieved write bandwidth in MiByte/s
system.mem_ctrl.avgRdBWSys                     491.32                       # Average system read bandwidth in MiByte/s
system.mem_ctrl.avgWrBWSys                       0.00                       # Average system write bandwidth in MiByte/s
system.mem_ctrl.peakBW                       12800.00                       # Theoretical peak bandwidth in MiByte/s
system.mem_ctrl.busUtil                          3.84                       # Data bus utilization in percentage
system.mem_ctrl.busUtilRead                      3.84                       # Data bus utilization in percentage for reads
system.mem_ctrl.busUtilWrite                     0.00                       # Data bus utilization in percentage for writes
system.mem_ctrl.avgRdQLen                        1.17                       # Average read queue length when enqueuing
system.mem_ctrl.avgWrQLen                        0.00                       # Average write queue length when enqueuing
system.mem_ctrl.readRowHits                       421                       # Number of row buffer hits during reads
system.mem_ctrl.writeRowHits                        0                       # Number of row buffer hits during writes
system.mem_ctrl.readRowHitRate                  81.12                       # Row buffer hit rate for reads
system.mem_ctrl.writeRowHitRate                   nan                       # Row buffer hit rate for writes
system.mem_ctrl.avgGap                      129987.00                       # Average gap between requests
system.mem_ctrl.pageHitRate                     81.12                       # Row buffer hit rate, read and write combined
system.mem_ctrl_0.actEnergy                    406980                       # Energy for activate commands per rank (pJ)
system.mem_ctrl_0.preEnergy                    197340                       # Energy for precharge commands per rank (pJ)
system.mem_ctrl_0.readEnergy                  2127720                       # Energy for read commands per rank (pJ)
system.mem_ctrl_0.writeEnergy                       0                       # Energy for write commands per rank (pJ)
system.mem_ctrl_0.refreshEnergy          4917120.000000                       # Energy for refresh commands per rank (pJ)
system.mem_ctrl_0.actBackEnergy               4505850                       # Energy for active background per rank (pJ)
system.mem_ctrl_0.preBackEnergy                113760                       # Energy for precharge background per rank (pJ)
system.mem_ctrl_0.actPowerDownEnergy         24973410                       # Energy for active power-down per rank (pJ)
system.mem_ctrl_0.prePowerDownEnergy          1022400                       # Energy for precharge power-down per rank (pJ)
system.mem_ctrl_0.selfRefreshEnergy                 0                       # Energy for self refresh per rank (pJ)
system.mem_ctrl_0.totalEnergy                38264580                       # Total energy per rank (pJ)
system.mem_ctrl_0.averagePower             565.998359                       # Core power per rank (mW)
system.mem_ctrl_0.totalIdleTime              57133022                       # Total Idle time Per DRAM Rank
system.mem_ctrl_0.memoryStateTime::IDLE         76441                       # Time in different power states
system.mem_ctrl_0.memoryStateTime::REF        2080000                       # Time in different power states
system.mem_ctrl_0.memoryStateTime::SREF             0                       # Time in different power states
system.mem_ctrl_0.memoryStateTime::PRE_PDN      2659716                       # Time in different power states
system.mem_ctrl_0.memoryStateTime::ACT        8027446                       # Time in different power states
system.mem_ctrl_0.memoryStateTime::ACT_PDN     54761858                       # Time in different power states
system.mem_ctrl_1.actEnergy                    292740                       # Energy for activate commands per rank (pJ)
system.mem_ctrl_1.preEnergy                    148005                       # Energy for precharge commands per rank (pJ)
system.mem_ctrl_1.readEnergy                  1577940                       # Energy for read commands per rank (pJ)
system.mem_ctrl_1.writeEnergy                       0                       # Energy for write commands per rank (pJ)
system.mem_ctrl_1.refreshEnergy          4917120.000000                       # Energy for refresh commands per rank (pJ)
system.mem_ctrl_1.actBackEnergy               3547680                       # Energy for active background per rank (pJ)
system.mem_ctrl_1.preBackEnergy                547200                       # Energy for precharge background per rank (pJ)
system.mem_ctrl_1.actPowerDownEnergy         24007260                       # Energy for active power-down per rank (pJ)
system.mem_ctrl_1.prePowerDownEnergy          2209440                       # Energy for precharge power-down per rank (pJ)
system.mem_ctrl_1.selfRefreshEnergy                 0                       # Energy for self refresh per rank (pJ)
system.mem_ctrl_1.totalEnergy                37247385                       # Total energy per rank (pJ)
system.mem_ctrl_1.averagePower             550.952311                       # Core power per rank (mW)
system.mem_ctrl_1.totalIdleTime              58338600                       # Total Idle time Per DRAM Rank
system.mem_ctrl_1.memoryStateTime::IDLE       1175444                       # Time in different power states
system.mem_ctrl_1.memoryStateTime::REF        2080000                       # Time in different power states
system.mem_ctrl_1.memoryStateTime::SREF             0                       # Time in different power states
system.mem_ctrl_1.memoryStateTime::PRE_PDN      5752431                       # Time in different power states
system.mem_ctrl_1.memoryStateTime::ACT        5942150                       # Time in different power states
system.mem_ctrl_1.memoryStateTime::ACT_PDN     52655436                       # Time in different power states
system.pwrStateResidencyTicks::UNDEFINED     67605461                       # Cumulative time (in ticks) in various power states
system.cpu.branchPred.lookups                    2749                       # Number of BP lookups
system.cpu.branchPred.condPredicted              1845                       # Number of conditional branches predicted
system.cpu.branchPred.condIncorrect               525                       # Number of conditional branches incorrect
system.cpu.branchPred.BTBLookups                 2179                       # Number of BTB lookups
system.cpu.branchPred.BTBHits                     623                       # Number of BTB hits
system.cpu.branchPred.BTBCorrect                    0                       # Number of correct BTB predictions (this stat may not work properly.
system.cpu.branchPred.BTBHitPct             28.591097                       # BTB Hit Percentage
system.cpu.branchPred.usedRAS                     274                       # Number of times the RAS was used to get a target.
system.cpu.branchPred.RASInCorrect                 22                       # Number of incorrect RAS predictions.
system.cpu.branchPred.indirectLookups             130                       # Number of indirect predictor lookups.
system.cpu.branchPred.indirectHits                  8                       # Number of indirect target hits.
system.cpu.branchPred.indirectMisses              122                       # Number of indirect misses.
system.cpu.branchPredindirectMispredicted           65                       # Number of mispredicted indirect branches.
system.cpu.dstage2_mmu.stage2_tlb.walker.pwrStateResidencyTicks::UNDEFINED     67605461                       # Cumulative time (in ticks) in various power states
system.cpu.dstage2_mmu.stage2_tlb.walker.walks            0                       # Table walker walks requested
system.cpu.dstage2_mmu.stage2_tlb.walker.walkRequestOrigin_Requested::Data            0                       # Table walker requests started/completed, data/inst
system.cpu.dstage2_mmu.stage2_tlb.walker.walkRequestOrigin_Requested::Inst            0                       # Table walker requests started/completed, data/inst
system.cpu.dstage2_mmu.stage2_tlb.walker.walkRequestOrigin_Requested::total            0                       # Table walker requests started/completed, data/inst
system.cpu.dstage2_mmu.stage2_tlb.walker.walkRequestOrigin_Completed::Data            0                       # Table walker requests started/completed, data/inst
system.cpu.dstage2_mmu.stage2_tlb.walker.walkRequestOrigin_Completed::Inst            0                       # Table walker requests started/completed, data/inst
system.cpu.dstage2_mmu.stage2_tlb.walker.walkRequestOrigin_Completed::total            0                       # Table walker requests started/completed, data/inst
system.cpu.dstage2_mmu.stage2_tlb.walker.walkRequestOrigin::total            0                       # Table walker requests started/completed, data/inst
system.cpu.dstage2_mmu.stage2_tlb.inst_hits            0                       # ITB inst hits
system.cpu.dstage2_mmu.stage2_tlb.inst_misses            0                       # ITB inst misses
system.cpu.dstage2_mmu.stage2_tlb.read_hits            0                       # DTB read hits
system.cpu.dstage2_mmu.stage2_tlb.read_misses            0                       # DTB read misses
system.cpu.dstage2_mmu.stage2_tlb.write_hits            0                       # DTB write hits
system.cpu.dstage2_mmu.stage2_tlb.write_misses            0                       # DTB write misses
system.cpu.dstage2_mmu.stage2_tlb.flush_tlb            0                       # Number of times complete TLB was flushed
system.cpu.dstage2_mmu.stage2_tlb.flush_tlb_mva            0                       # Number of times TLB was flushed by MVA
system.cpu.dstage2_mmu.stage2_tlb.flush_tlb_mva_asid            0                       # Number of times TLB was flushed by MVA & ASID
system.cpu.dstage2_mmu.stage2_tlb.flush_tlb_asid            0                       # Number of times TLB was flushed by ASID
system.cpu.dstage2_mmu.stage2_tlb.flush_entries            0                       # Number of entries that have been flushed from TLB
system.cpu.dstage2_mmu.stage2_tlb.align_faults            0                       # Number of TLB faults due to alignment restrictions
system.cpu.dstage2_mmu.stage2_tlb.prefetch_faults            0                       # Number of TLB faults due to prefetch
system.cpu.dstage2_mmu.stage2_tlb.domain_faults            0                       # Number of TLB faults due to domain restrictions
system.cpu.dstage2_mmu.stage2_tlb.perms_faults            0                       # Number of TLB faults due to permissions restrictions
system.cpu.dstage2_mmu.stage2_tlb.read_accesses            0                       # DTB read accesses
system.cpu.dstage2_mmu.stage2_tlb.write_accesses            0                       # DTB write accesses
system.cpu.dstage2_mmu.stage2_tlb.inst_accesses            0                       # ITB inst accesses
system.cpu.dstage2_mmu.stage2_tlb.hits              0                       # DTB hits
system.cpu.dstage2_mmu.stage2_tlb.misses            0                       # DTB misses
system.cpu.dstage2_mmu.stage2_tlb.accesses            0                       # DTB accesses
system.cpu.dtb.walker.pwrStateResidencyTicks::UNDEFINED     67605461                       # Cumulative time (in ticks) in various power states
system.cpu.dtb.walker.walks                         0                       # Table walker walks requested
system.cpu.dtb.walker.walkRequestOrigin_Requested::Data            0                       # Table walker requests started/completed, data/inst
system.cpu.dtb.walker.walkRequestOrigin_Requested::Inst            0                       # Table walker requests started/completed, data/inst
system.cpu.dtb.walker.walkRequestOrigin_Requested::total            0                       # Table walker requests started/completed, data/inst
system.cpu.dtb.walker.walkRequestOrigin_Completed::Data            0                       # Table walker requests started/completed, data/inst
system.cpu.dtb.walker.walkRequestOrigin_Completed::Inst            0                       # Table walker requests started/completed, data/inst
system.cpu.dtb.walker.walkRequestOrigin_Completed::total            0                       # Table walker requests started/completed, data/inst
system.cpu.dtb.walker.walkRequestOrigin::total            0                       # Table walker requests started/completed, data/inst
system.cpu.dtb.inst_hits                            0                       # ITB inst hits
system.cpu.dtb.inst_misses                          0                       # ITB inst misses
system.cpu.dtb.read_hits                            0                       # DTB read hits
system.cpu.dtb.read_misses                          0                       # DTB read misses
system.cpu.dtb.write_hits                           0                       # DTB write hits
system.cpu.dtb.write_misses                         0                       # DTB write misses
system.cpu.dtb.flush_tlb                            0                       # Number of times complete TLB was flushed
system.cpu.dtb.flush_tlb_mva                        0                       # Number of times TLB was flushed by MVA
system.cpu.dtb.flush_tlb_mva_asid                   0                       # Number of times TLB was flushed by MVA & ASID
system.cpu.dtb.flush_tlb_asid                       0                       # Number of times TLB was flushed by ASID
system.cpu.dtb.flush_entries                        0                       # Number of entries that have been flushed from TLB
system.cpu.dtb.align_faults                         0                       # Number of TLB faults due to alignment restrictions
system.cpu.dtb.prefetch_faults                      0                       # Number of TLB faults due to prefetch
system.cpu.dtb.domain_faults                        0                       # Number of TLB faults due to domain restrictions
system.cpu.dtb.perms_faults                         0                       # Number of TLB faults due to permissions restrictions
system.cpu.dtb.read_accesses                        0                       # DTB read accesses
system.cpu.dtb.write_accesses                       0                       # DTB write accesses
system.cpu.dtb.inst_accesses                        0                       # ITB inst accesses
system.cpu.dtb.hits                                 0                       # DTB hits
system.cpu.dtb.misses                               0                       # DTB misses
system.cpu.dtb.accesses                             0                       # DTB accesses
system.cpu.istage2_mmu.stage2_tlb.walker.pwrStateResidencyTicks::UNDEFINED     67605461                       # Cumulative time (in ticks) in various power states
system.cpu.istage2_mmu.stage2_tlb.walker.walks            0                       # Table walker walks requested
system.cpu.istage2_mmu.stage2_tlb.walker.walkRequestOrigin_Requested::Data            0                       # Table walker requests started/completed, data/inst
system.cpu.istage2_mmu.stage2_tlb.walker.walkRequestOrigin_Requested::Inst            0                       # Table walker requests started/completed, data/inst
system.cpu.istage2_mmu.stage2_tlb.walker.walkRequestOrigin_Requested::total            0                       # Table walker requests started/completed, data/inst
system.cpu.istage2_mmu.stage2_tlb.walker.walkRequestOrigin_Completed::Data            0                       # Table walker requests started/completed, data/inst
system.cpu.istage2_mmu.stage2_tlb.walker.walkRequestOrigin_Completed::Inst            0                       # Table walker requests started/completed, data/inst
system.cpu.istage2_mmu.stage2_tlb.walker.walkRequestOrigin_Completed::total            0                       # Table walker requests started/completed, data/inst
system.cpu.istage2_mmu.stage2_tlb.walker.walkRequestOrigin::total            0                       # Table walker requests started/completed, data/inst
system.cpu.istage2_mmu.stage2_tlb.inst_hits            0                       # ITB inst hits
system.cpu.istage2_mmu.stage2_tlb.inst_misses            0                       # ITB inst misses
system.cpu.istage2_mmu.stage2_tlb.read_hits            0                       # DTB read hits
system.cpu.istage2_mmu.stage2_tlb.read_misses            0                       # DTB read misses
system.cpu.istage2_mmu.stage2_tlb.write_hits            0                       # DTB write hits
system.cpu.istage2_mmu.stage2_tlb.write_misses            0                       # DTB write misses
system.cpu.istage2_mmu.stage2_tlb.flush_tlb            0                       # Number of times complete TLB was flushed
system.cpu.istage2_mmu.stage2_tlb.flush_tlb_mva            0                       # Number of times TLB was flushed by MVA
system.cpu.istage2_mmu.stage2_tlb.flush_tlb_mva_asid            0                       # Number of times TLB was flushed by MVA & ASID
system.cpu.istage2_mmu.stage2_tlb.flush_tlb_asid            0                       # Number of times TLB was flushed by ASID
system.cpu.istage2_mmu.stage2_tlb.flush_entries            0                       # Number of entries that have been flushed from TLB
system.cpu.istage2_mmu.stage2_tlb.align_faults            0                       # Number of TLB faults due to alignment restrictions
system.cpu.istage2_mmu.stage2_tlb.prefetch_faults            0                       # Number of TLB faults due to prefetch
system.cpu.istage2_mmu.stage2_tlb.domain_faults            0                       # Number of TLB faults due to domain restrictions
system.cpu.istage2_mmu.stage2_tlb.perms_faults            0                       # Number of TLB faults due to permissions restrictions
system.cpu.istage2_mmu.stage2_tlb.read_accesses            0                       # DTB read accesses
system.cpu.istage2_mmu.stage2_tlb.write_accesses            0                       # DTB write accesses
system.cpu.istage2_mmu.stage2_tlb.inst_accesses            0                       # ITB inst accesses
system.cpu.istage2_mmu.stage2_tlb.hits              0                       # DTB hits
system.cpu.istage2_mmu.stage2_tlb.misses            0                       # DTB misses
system.cpu.istage2_mmu.stage2_tlb.accesses            0                       # DTB accesses
system.cpu.itb.walker.pwrStateResidencyTicks::UNDEFINED     67605461                       # Cumulative time (in ticks) in various power states
system.cpu.itb.walker.walks                         0                       # Table walker walks requested
system.cpu.itb.walker.walkRequestOrigin_Requested::Data            0                       # Table walker requests started/completed, data/inst
system.cpu.itb.walker.walkRequestOrigin_Requested::Inst            0                       # Table walker requests started/completed, data/inst
system.cpu.itb.walker.walkRequestOrigin_Requested::total            0                       # Table walker requests started/completed, data/inst
system.cpu.itb.walker.walkRequestOrigin_Completed::Data            0                       # Table walker requests started/completed, data/inst
system.cpu.itb.walker.walkRequestOrigin_Completed::Inst            0                       # Table walker requests started/completed, data/inst
system.cpu.itb.walker.walkRequestOrigin_Completed::total            0                       # Table walker requests started/completed, data/inst
system.cpu.itb.walker.walkRequestOrigin::total            0                       # Table walker requests started/completed, data/inst
system.cpu.itb.inst_hits                            0                       # ITB inst hits
system.cpu.itb.inst_misses                          0                       # ITB inst misses
system.cpu.itb.read_hits                            0                       # DTB read hits
system.cpu.itb.read_misses                          0                       # DTB read misses
system.cpu.itb.write_hits                           0                       # DTB write hits
system.cpu.itb.write_misses                         0                       # DTB write misses
system.cpu.itb.flush_tlb                            0                       # Number of times complete TLB was flushed
system.cpu.itb.flush_tlb_mva                        0                       # Number of times TLB was flushed by MVA
system.cpu.itb.flush_tlb_mva_asid                   0                       # Number of times TLB was flushed by MVA & ASID
system.cpu.itb.flush_tlb_asid                       0                       # Number of times TLB was flushed by ASID
system.cpu.itb.flush_entries                        0                       # Number of entries that have been flushed from TLB
system.cpu.itb.align_faults                         0                       # Number of TLB faults due to alignment restrictions
system.cpu.itb.prefetch_faults                      0                       # Number of TLB faults due to prefetch
system.cpu.itb.domain_faults                        0                       # Number of TLB faults due to domain restrictions
system.cpu.itb.perms_faults                         0                       # Number of TLB faults due to permissions restrictions
system.cpu.itb.read_accesses                        0                       # DTB read accesses
system.cpu.itb.write_accesses                       0                       # DTB write accesses
system.cpu.itb.inst_accesses                        0                       # ITB inst accesses
system.cpu.itb.hits                                 0                       # DTB hits
system.cpu.itb.misses                               0                       # DTB misses
system.cpu.itb.accesses                             0                       # DTB accesses
system.cpu.workload.numSyscalls                     9                       # Number of system calls
system.cpu.pwrStateResidencyTicks::ON        67605461                       # Cumulative time (in ticks) in various power states
system.cpu.numCycles                            60851                       # number of cpu cycles simulated
system.cpu.numWorkItemsStarted                      0                       # number of work items this cpu started
system.cpu.numWorkItemsCompleted                    0                       # number of work items this cpu completed
system.cpu.committedInsts                        8142                       # Number of instructions committed
system.cpu.committedOps                          9413                       # Number of ops (including micro ops) committed
system.cpu.discardedOps                          1600                       # Number of ops (including micro ops) which were discarded before commit
system.cpu.numFetchSuspends                         0                       # Number of times Execute suspended instruction fetching
system.cpu.cpi                               7.473717                       # CPI: cycles per instruction
system.cpu.ipc                               0.133802                       # IPC: instructions per cycle
system.cpu.op_class_0::No_OpClass                   0      0.00%      0.00% # Class of committed instruction
system.cpu.op_class_0::IntAlu                    6188     65.74%     65.74% # Class of committed instruction
system.cpu.op_class_0::IntMult                      5      0.05%     65.79% # Class of committed instruction
system.cpu.op_class_0::IntDiv                       0      0.00%     65.79% # Class of committed instruction
system.cpu.op_class_0::FloatAdd                     0      0.00%     65.79% # Class of committed instruction
system.cpu.op_class_0::FloatCmp                     0      0.00%     65.79% # Class of committed instruction
system.cpu.op_class_0::FloatCvt                     0      0.00%     65.79% # Class of committed instruction
system.cpu.op_class_0::FloatMult                    0      0.00%     65.79% # Class of committed instruction
system.cpu.op_class_0::FloatMultAcc                 0      0.00%     65.79% # Class of committed instruction
system.cpu.op_class_0::FloatDiv                     0      0.00%     65.79% # Class of committed instruction
system.cpu.op_class_0::FloatMisc                    0      0.00%     65.79% # Class of committed instruction
system.cpu.op_class_0::FloatSqrt                    0      0.00%     65.79% # Class of committed instruction
system.cpu.op_class_0::SimdAdd                      0      0.00%     65.79% # Class of committed instruction
system.cpu.op_class_0::SimdAddAcc                   0      0.00%     65.79% # Class of committed instruction
system.cpu.op_class_0::SimdAlu                      0      0.00%     65.79% # Class of committed instruction
system.cpu.op_class_0::SimdCmp                      0      0.00%     65.79% # Class of committed instruction
system.cpu.op_class_0::SimdCvt                      0      0.00%     65.79% # Class of committed instruction
system.cpu.op_class_0::SimdMisc                     0      0.00%     65.79% # Class of committed instruction
system.cpu.op_class_0::SimdMult                     0      0.00%     65.79% # Class of committed instruction
system.cpu.op_class_0::SimdMultAcc                  0      0.00%     65.79% # Class of committed instruction
system.cpu.op_class_0::SimdShift                    0      0.00%     65.79% # Class of committed instruction
system.cpu.op_class_0::SimdShiftAcc                 0      0.00%     65.79% # Class of committed instruction
system.cpu.op_class_0::SimdSqrt                     0      0.00%     65.79% # Class of committed instruction
system.cpu.op_class_0::SimdFloatAdd                 0      0.00%     65.79% # Class of committed instruction
system.cpu.op_class_0::SimdFloatAlu                 0      0.00%     65.79% # Class of committed instruction
system.cpu.op_class_0::SimdFloatCmp                 0      0.00%     65.79% # Class of committed instruction
system.cpu.op_class_0::SimdFloatCvt                 0      0.00%     65.79% # Class of committed instruction
system.cpu.op_class_0::SimdFloatDiv                 0      0.00%     65.79% # Class of committed instruction
system.cpu.op_class_0::SimdFloatMisc                0      0.00%     65.79% # Class of committed instruction
system.cpu.op_class_0::SimdFloatMult                0      0.00%     65.79% # Class of committed instruction
system.cpu.op_class_0::SimdFloatMultAcc             0      0.00%     65.79% # Class of committed instruction
system.cpu.op_class_0::SimdFloatSqrt                0      0.00%     65.79% # Class of committed instruction
system.cpu.op_class_0::SimdAes                      0      0.00%     65.79% # Class of committed instruction
system.cpu.op_class_0::SimdAesMix                   0      0.00%     65.79% # Class of committed instruction
system.cpu.op_class_0::SimdSha1Hash                 0      0.00%     65.79% # Class of committed instruction
system.cpu.op_class_0::SimdSha1Hash2                0      0.00%     65.79% # Class of committed instruction
system.cpu.op_class_0::SimdSha256Hash               0      0.00%     65.79% # Class of committed instruction
system.cpu.op_class_0::SimdSha256Hash2              0      0.00%     65.79% # Class of committed instruction
system.cpu.op_class_0::SimdShaSigma2                0      0.00%     65.79% # Class of committed instruction
system.cpu.op_class_0::SimdShaSigma3                0      0.00%     65.79% # Class of committed instruction
system.cpu.op_class_0::MemRead                   1619     17.20%     82.99% # Class of committed instruction
system.cpu.op_class_0::MemWrite                  1585     16.84%     99.83% # Class of committed instruction
system.cpu.op_class_0::FloatMemRead                 0      0.00%     99.83% # Class of committed instruction
system.cpu.op_class_0::FloatMemWrite               16      0.17%    100.00% # Class of committed instruction
system.cpu.op_class_0::IprAccess                    0      0.00%    100.00% # Class of committed instruction
system.cpu.op_class_0::InstPrefetch                 0      0.00%    100.00% # Class of committed instruction
system.cpu.op_class_0::total                     9413                       # Class of committed instruction
system.cpu.tickCycles                           16735                       # Number of cycles that the object actually ticked
system.cpu.idleCycles                           44116                       # Total number of cycles that the object has spent stopped
system.cpu.fetch2.int_instructions               8028                       # Number of integer instructions successfully decoded
system.cpu.fetch2.fp_instructions                   0                       # Number of floating point instructions successfully decoded
system.cpu.fetch2.vec_instructions                  0                       # Number of SIMD instructions successfully decoded
system.cpu.fetch2.load_instructions              2482                       # Number of memory load instructions successfully decoded
system.cpu.fetch2.store_instructions             1312                       # Number of memory store instructions successfully decoded
system.cpu.dcache.tags.pwrStateResidencyTicks::UNDEFINED     67605461                       # Cumulative time (in ticks) in various power states
system.cpu.dcache.tags.tagsinuse           111.555506                       # Cycle average of tags in use
system.cpu.dcache.tags.total_refs                3282                       # Total number of references to valid blocks.
system.cpu.dcache.tags.sampled_refs               196                       # Sample count of references to valid blocks.
system.cpu.dcache.tags.avg_refs             16.744898                       # Average number of references to valid blocks.
system.cpu.dcache.tags.warmup_cycle            255530                       # Cycle when the warmup percentage was hit.
system.cpu.dcache.tags.occ_blocks::.cpu.data   111.555506                       # Average occupied blocks per requestor
system.cpu.dcache.tags.occ_percent::.cpu.data     0.217882                       # Average percentage of cache occupancy
system.cpu.dcache.tags.occ_percent::total     0.217882                       # Average percentage of cache occupancy
system.cpu.dcache.tags.occ_task_id_blocks::1024          196                       # Occupied blocks per task id
system.cpu.dcache.tags.age_task_id_blocks_1024::0           26                       # Occupied blocks per task id
system.cpu.dcache.tags.age_task_id_blocks_1024::1          170                       # Occupied blocks per task id
system.cpu.dcache.tags.occ_task_id_percent::1024     0.382812                       # Percentage of cache occupancy per task id
system.cpu.dcache.tags.tag_accesses             13528                       # Number of tag accesses
system.cpu.dcache.tags.data_accesses            13528                       # Number of data accesses
system.cpu.dcache.pwrStateResidencyTicks::UNDEFINED     67605461                       # Cumulative time (in ticks) in various power states
system.cpu.dcache.ReadReq_hits::.cpu.data         1622                       # number of ReadReq hits
system.cpu.dcache.ReadReq_hits::total            1622                       # number of ReadReq hits
system.cpu.dcache.WriteReq_hits::.cpu.data         1436                       # number of WriteReq hits
system.cpu.dcache.WriteReq_hits::total           1436                       # number of WriteReq hits
system.cpu.dcache.LoadLockedReq_hits::.cpu.data           14                       # number of LoadLockedReq hits
system.cpu.dcache.LoadLockedReq_hits::total           14                       # number of LoadLockedReq hits
system.cpu.dcache.StoreCondReq_hits::.cpu.data           14                       # number of StoreCondReq hits
system.cpu.dcache.StoreCondReq_hits::total           14                       # number of StoreCondReq hits
system.cpu.dcache.demand_hits::.cpu.data         3058                       # number of demand (read+write) hits
system.cpu.dcache.demand_hits::total             3058                       # number of demand (read+write) hits
system.cpu.dcache.overall_hits::.cpu.data         3058                       # number of overall hits
system.cpu.dcache.overall_hits::total            3058                       # number of overall hits
system.cpu.dcache.ReadReq_misses::.cpu.data          147                       # number of ReadReq misses
system.cpu.dcache.ReadReq_misses::total           147                       # number of ReadReq misses
system.cpu.dcache.WriteReq_misses::.cpu.data          100                       # number of WriteReq misses
system.cpu.dcache.WriteReq_misses::total          100                       # number of WriteReq misses
system.cpu.dcache.demand_misses::.cpu.data          247                       # number of demand (read+write) misses
system.cpu.dcache.demand_misses::total            247                       # number of demand (read+write) misses
system.cpu.dcache.overall_misses::.cpu.data          247                       # number of overall misses
system.cpu.dcache.overall_misses::total           247                       # number of overall misses
system.cpu.dcache.ReadReq_miss_latency::.cpu.data     16607228                       # number of ReadReq miss cycles
system.cpu.dcache.ReadReq_miss_latency::total     16607228                       # number of ReadReq miss cycles
system.cpu.dcache.WriteReq_miss_latency::.cpu.data     12097679                       # number of WriteReq miss cycles
system.cpu.dcache.WriteReq_miss_latency::total     12097679                       # number of WriteReq miss cycles
system.cpu.dcache.demand_miss_latency::.cpu.data     28704907                       # number of demand (read+write) miss cycles
system.cpu.dcache.demand_miss_latency::total     28704907                       # number of demand (read+write) miss cycles
system.cpu.dcache.overall_miss_latency::.cpu.data     28704907                       # number of overall miss cycles
system.cpu.dcache.overall_miss_latency::total     28704907                       # number of overall miss cycles
system.cpu.dcache.ReadReq_accesses::.cpu.data         1769                       # number of ReadReq accesses(hits+misses)
system.cpu.dcache.ReadReq_accesses::total         1769                       # number of ReadReq accesses(hits+misses)
system.cpu.dcache.WriteReq_accesses::.cpu.data         1536                       # number of WriteReq accesses(hits+misses)
system.cpu.dcache.WriteReq_accesses::total         1536                       # number of WriteReq accesses(hits+misses)
system.cpu.dcache.LoadLockedReq_accesses::.cpu.data           14                       # number of LoadLockedReq accesses(hits+misses)
system.cpu.dcache.LoadLockedReq_accesses::total           14                       # number of LoadLockedReq accesses(hits+misses)
system.cpu.dcache.StoreCondReq_accesses::.cpu.data           14                       # number of StoreCondReq accesses(hits+misses)
system.cpu.dcache.StoreCondReq_accesses::total           14                       # number of StoreCondReq accesses(hits+misses)
system.cpu.dcache.demand_accesses::.cpu.data         3305                       # number of demand (read+write) accesses
system.cpu.dcache.demand_accesses::total         3305                       # number of demand (read+write) accesses
system.cpu.dcache.overall_accesses::.cpu.data         3305                       # number of overall (read+write) accesses
system.cpu.dcache.overall_accesses::total         3305                       # number of overall (read+write) accesses
system.cpu.dcache.ReadReq_miss_rate::.cpu.data     0.083098                       # miss rate for ReadReq accesses
system.cpu.dcache.ReadReq_miss_rate::total     0.083098                       # miss rate for ReadReq accesses
system.cpu.dcache.WriteReq_miss_rate::.cpu.data     0.065104                       # miss rate for WriteReq accesses
system.cpu.dcache.WriteReq_miss_rate::total     0.065104                       # miss rate for WriteReq accesses
system.cpu.dcache.demand_miss_rate::.cpu.data     0.074735                       # miss rate for demand accesses
system.cpu.dcache.demand_miss_rate::total     0.074735                       # miss rate for demand accesses
system.cpu.dcache.overall_miss_rate::.cpu.data     0.074735                       # miss rate for overall accesses
system.cpu.dcache.overall_miss_rate::total     0.074735                       # miss rate for overall accesses
system.cpu.dcache.ReadReq_avg_miss_latency::.cpu.data 112974.340136                       # average ReadReq miss latency
system.cpu.dcache.ReadReq_avg_miss_latency::total 112974.340136                       # average ReadReq miss latency
system.cpu.dcache.WriteReq_avg_miss_latency::.cpu.data 120976.790000                       # average WriteReq miss latency
system.cpu.dcache.WriteReq_avg_miss_latency::total 120976.790000                       # average WriteReq miss latency
system.cpu.dcache.demand_avg_miss_latency::.cpu.data 116214.198381                       # average overall miss latency
system.cpu.dcache.demand_avg_miss_latency::total 116214.198381                       # average overall miss latency
system.cpu.dcache.overall_avg_miss_latency::.cpu.data 116214.198381                       # average overall miss latency
system.cpu.dcache.overall_avg_miss_latency::total 116214.198381                       # average overall miss latency
system.cpu.dcache.blocked_cycles::no_mshrs            0                       # number of cycles access was blocked
system.cpu.dcache.blocked_cycles::no_targets            0                       # number of cycles access was blocked
system.cpu.dcache.blocked::no_mshrs                 0                       # number of cycles access was blocked
system.cpu.dcache.blocked::no_targets               0                       # number of cycles access was blocked
system.cpu.dcache.avg_blocked_cycles::no_mshrs          nan                       # average number of cycles each access was blocked
system.cpu.dcache.avg_blocked_cycles::no_targets          nan                       # average number of cycles each access was blocked
system.cpu.dcache.ReadReq_mshr_hits::.cpu.data           12                       # number of ReadReq MSHR hits
system.cpu.dcache.ReadReq_mshr_hits::total           12                       # number of ReadReq MSHR hits
system.cpu.dcache.WriteReq_mshr_hits::.cpu.data           39                       # number of WriteReq MSHR hits
system.cpu.dcache.WriteReq_mshr_hits::total           39                       # number of WriteReq MSHR hits
system.cpu.dcache.demand_mshr_hits::.cpu.data           51                       # number of demand (read+write) MSHR hits
system.cpu.dcache.demand_mshr_hits::total           51                       # number of demand (read+write) MSHR hits
system.cpu.dcache.overall_mshr_hits::.cpu.data           51                       # number of overall MSHR hits
system.cpu.dcache.overall_mshr_hits::total           51                       # number of overall MSHR hits
system.cpu.dcache.ReadReq_mshr_misses::.cpu.data          135                       # number of ReadReq MSHR misses
system.cpu.dcache.ReadReq_mshr_misses::total          135                       # number of ReadReq MSHR misses
system.cpu.dcache.WriteReq_mshr_misses::.cpu.data           61                       # number of WriteReq MSHR misses
system.cpu.dcache.WriteReq_mshr_misses::total           61                       # number of WriteReq MSHR misses
system.cpu.dcache.demand_mshr_misses::.cpu.data          196                       # number of demand (read+write) MSHR misses
system.cpu.dcache.demand_mshr_misses::total          196                       # number of demand (read+write) MSHR misses
system.cpu.dcache.overall_mshr_misses::.cpu.data          196                       # number of overall MSHR misses
system.cpu.dcache.overall_mshr_misses::total          196                       # number of overall MSHR misses
system.cpu.dcache.ReadReq_mshr_miss_latency::.cpu.data     14747414                       # number of ReadReq MSHR miss cycles
system.cpu.dcache.ReadReq_mshr_miss_latency::total     14747414                       # number of ReadReq MSHR miss cycles
system.cpu.dcache.WriteReq_mshr_miss_latency::.cpu.data      7361486                       # number of WriteReq MSHR miss cycles
system.cpu.dcache.WriteReq_mshr_miss_latency::total      7361486                       # number of WriteReq MSHR miss cycles
system.cpu.dcache.demand_mshr_miss_latency::.cpu.data     22108900                       # number of demand (read+write) MSHR miss cycles
system.cpu.dcache.demand_mshr_miss_latency::total     22108900                       # number of demand (read+write) MSHR miss cycles
system.cpu.dcache.overall_mshr_miss_latency::.cpu.data     22108900                       # number of overall MSHR miss cycles
system.cpu.dcache.overall_mshr_miss_latency::total     22108900                       # number of overall MSHR miss cycles
system.cpu.dcache.ReadReq_mshr_miss_rate::.cpu.data     0.076314                       # mshr miss rate for ReadReq accesses
system.cpu.dcache.ReadReq_mshr_miss_rate::total     0.076314                       # mshr miss rate for ReadReq accesses
system.cpu.dcache.WriteReq_mshr_miss_rate::.cpu.data     0.039714                       # mshr miss rate for WriteReq accesses
system.cpu.dcache.WriteReq_mshr_miss_rate::total     0.039714                       # mshr miss rate for WriteReq accesses
system.cpu.dcache.demand_mshr_miss_rate::.cpu.data     0.059304                       # mshr miss rate for demand accesses
system.cpu.dcache.demand_mshr_miss_rate::total     0.059304                       # mshr miss rate for demand accesses
system.cpu.dcache.overall_mshr_miss_rate::.cpu.data     0.059304                       # mshr miss rate for overall accesses
system.cpu.dcache.overall_mshr_miss_rate::total     0.059304                       # mshr miss rate for overall accesses
system.cpu.dcache.ReadReq_avg_mshr_miss_latency::.cpu.data 109240.103704                       # average ReadReq mshr miss latency
system.cpu.dcache.ReadReq_avg_mshr_miss_latency::total 109240.103704                       # average ReadReq mshr miss latency
system.cpu.dcache.WriteReq_avg_mshr_miss_latency::.cpu.data 120680.098361                       # average WriteReq mshr miss latency
system.cpu.dcache.WriteReq_avg_mshr_miss_latency::total 120680.098361                       # average WriteReq mshr miss latency
system.cpu.dcache.demand_avg_mshr_miss_latency::.cpu.data 112800.510204                       # average overall mshr miss latency
system.cpu.dcache.demand_avg_mshr_miss_latency::total 112800.510204                       # average overall mshr miss latency
system.cpu.dcache.overall_avg_mshr_miss_latency::.cpu.data 112800.510204                       # average overall mshr miss latency
system.cpu.dcache.overall_avg_mshr_miss_latency::total 112800.510204                       # average overall mshr miss latency
system.cpu.dcache.replacements                      0                       # number of replacements
system.cpu.icache.tags.pwrStateResidencyTicks::UNDEFINED     67605461                       # Cumulative time (in ticks) in various power states
system.cpu.icache.tags.tagsinuse           176.111816                       # Cycle average of tags in use
system.cpu.icache.tags.total_refs                3625                       # Total number of references to valid blocks.
system.cpu.icache.tags.sampled_refs               390                       # Sample count of references to valid blocks.
system.cpu.icache.tags.avg_refs              9.294872                       # Average number of references to valid blocks.
system.cpu.icache.tags.warmup_cycle            123321                       # Cycle when the warmup percentage was hit.
system.cpu.icache.tags.occ_blocks::.cpu.inst   176.111816                       # Average occupied blocks per requestor
system.cpu.icache.tags.occ_percent::.cpu.inst     0.343968                       # Average percentage of cache occupancy
system.cpu.icache.tags.occ_percent::total     0.343968                       # Average percentage of cache occupancy
system.cpu.icache.tags.occ_task_id_blocks::1024          312                       # Occupied blocks per task id
system.cpu.icache.tags.age_task_id_blocks_1024::0           56                       # Occupied blocks per task id
system.cpu.icache.tags.age_task_id_blocks_1024::1          256                       # Occupied blocks per task id
system.cpu.icache.tags.occ_task_id_percent::1024     0.609375                       # Percentage of cache occupancy per task id
system.cpu.icache.tags.tag_accesses              7642                       # Number of tag accesses
system.cpu.icache.tags.data_accesses             7642                       # Number of data accesses
system.cpu.icache.pwrStateResidencyTicks::UNDEFINED     67605461                       # Cumulative time (in ticks) in various power states
system.cpu.icache.ReadReq_hits::.cpu.inst         3235                       # number of ReadReq hits
system.cpu.icache.ReadReq_hits::total            3235                       # number of ReadReq hits
system.cpu.icache.demand_hits::.cpu.inst         3235                       # number of demand (read+write) hits
system.cpu.icache.demand_hits::total             3235                       # number of demand (read+write) hits
system.cpu.icache.overall_hits::.cpu.inst         3235                       # number of overall hits
system.cpu.icache.overall_hits::total            3235                       # number of overall hits
system.cpu.icache.ReadReq_misses::.cpu.inst          391                       # number of ReadReq misses
system.cpu.icache.ReadReq_misses::total           391                       # number of ReadReq misses
system.cpu.icache.demand_misses::.cpu.inst          391                       # number of demand (read+write) misses
system.cpu.icache.demand_misses::total            391                       # number of demand (read+write) misses
system.cpu.icache.overall_misses::.cpu.inst          391                       # number of overall misses
system.cpu.icache.overall_misses::total           391                       # number of overall misses
system.cpu.icache.ReadReq_miss_latency::.cpu.inst     44899954                       # number of ReadReq miss cycles
system.cpu.icache.ReadReq_miss_latency::total     44899954                       # number of ReadReq miss cycles
system.cpu.icache.demand_miss_latency::.cpu.inst     44899954                       # number of demand (read+write) miss cycles
system.cpu.icache.demand_miss_latency::total     44899954                       # number of demand (read+write) miss cycles
system.cpu.icache.overall_miss_latency::.cpu.inst     44899954                       # number of overall miss cycles
system.cpu.icache.overall_miss_latency::total     44899954                       # number of overall miss cycles
system.cpu.icache.ReadReq_accesses::.cpu.inst         3626                       # number of ReadReq accesses(hits+misses)
system.cpu.icache.ReadReq_accesses::total         3626                       # number of ReadReq accesses(hits+misses)
system.cpu.icache.demand_accesses::.cpu.inst         3626                       # number of demand (read+write) accesses
system.cpu.icache.demand_accesses::total         3626                       # number of demand (read+write) accesses
system.cpu.icache.overall_accesses::.cpu.inst         3626                       # number of overall (read+write) accesses
system.cpu.icache.overall_accesses::total         3626                       # number of overall (read+write) accesses
system.cpu.icache.ReadReq_miss_rate::.cpu.inst     0.107832                       # miss rate for ReadReq accesses
system.cpu.icache.ReadReq_miss_rate::total     0.107832                       # miss rate for ReadReq accesses
system.cpu.icache.demand_miss_rate::.cpu.inst     0.107832                       # miss rate for demand accesses
system.cpu.icache.demand_miss_rate::total     0.107832                       # miss rate for demand accesses
system.cpu.icache.overall_miss_rate::.cpu.inst     0.107832                       # miss rate for overall accesses
system.cpu.icache.overall_miss_rate::total     0.107832                       # miss rate for overall accesses
system.cpu.icache.ReadReq_avg_miss_latency::.cpu.inst 114833.641944                       # average ReadReq miss latency
system.cpu.icache.ReadReq_avg_miss_latency::total 114833.641944                       # average ReadReq miss latency
system.cpu.icache.demand_avg_miss_latency::.cpu.inst 114833.641944                       # average overall miss latency
system.cpu.icache.demand_avg_miss_latency::total 114833.641944                       # average overall miss latency
system.cpu.icache.overall_avg_miss_latency::.cpu.inst 114833.641944                       # average overall miss latency
system.cpu.icache.overall_avg_miss_latency::total 114833.641944                       # average overall miss latency
system.cpu.icache.blocked_cycles::no_mshrs            0                       # number of cycles access was blocked
system.cpu.icache.blocked_cycles::no_targets            0                       # number of cycles access was blocked
system.cpu.icache.blocked::no_mshrs                 0                       # number of cycles access was blocked
system.cpu.icache.blocked::no_targets               0                       # number of cycles access was blocked
system.cpu.icache.avg_blocked_cycles::no_mshrs          nan                       # average number of cycles each access was blocked
system.cpu.icache.avg_blocked_cycles::no_targets          nan                       # average number of cycles each access was blocked
system.cpu.icache.ReadReq_mshr_misses::.cpu.inst          391                       # number of ReadReq MSHR misses
system.cpu.icache.ReadReq_mshr_misses::total          391                       # number of ReadReq MSHR misses
system.cpu.icache.demand_mshr_misses::.cpu.inst          391                       # number of demand (read+write) MSHR misses
system.cpu.icache.demand_mshr_misses::total          391                       # number of demand (read+write) MSHR misses
system.cpu.icache.overall_mshr_misses::.cpu.inst          391                       # number of overall MSHR misses
system.cpu.icache.overall_mshr_misses::total          391                       # number of overall MSHR misses
system.cpu.icache.ReadReq_mshr_miss_latency::.cpu.inst     44033374                       # number of ReadReq MSHR miss cycles
system.cpu.icache.ReadReq_mshr_miss_latency::total     44033374                       # number of ReadReq MSHR miss cycles
system.cpu.icache.demand_mshr_miss_latency::.cpu.inst     44033374                       # number of demand (read+write) MSHR miss cycles
system.cpu.icache.demand_mshr_miss_latency::total     44033374                       # number of demand (read+write) MSHR miss cycles
system.cpu.icache.overall_mshr_miss_latency::.cpu.inst     44033374                       # number of overall MSHR miss cycles
system.cpu.icache.overall_mshr_miss_latency::total     44033374                       # number of overall MSHR miss cycles
system.cpu.icache.ReadReq_mshr_miss_rate::.cpu.inst     0.107832                       # mshr miss rate for ReadReq accesses
system.cpu.icache.ReadReq_mshr_miss_rate::total     0.107832                       # mshr miss rate for ReadReq accesses
system.cpu.icache.demand_mshr_miss_rate::.cpu.inst     0.107832                       # mshr miss rate for demand accesses
system.cpu.icache.demand_mshr_miss_rate::total     0.107832                       # mshr miss rate for demand accesses
system.cpu.icache.overall_mshr_miss_rate::.cpu.inst     0.107832                       # mshr miss rate for overall accesses
system.cpu.icache.overall_mshr_miss_rate::total     0.107832                       # mshr miss rate for overall accesses
system.cpu.icache.ReadReq_avg_mshr_miss_latency::.cpu.inst 112617.324808                       # average ReadReq mshr miss latency
system.cpu.icache.ReadReq_avg_mshr_miss_latency::total 112617.324808                       # average ReadReq mshr miss latency
[...]
system.cpu.l2cache.overall_miss_latency::.cpu.inst     41060338                       # number of overall miss cycles
system.cpu.l2cache.overall_miss_latency::.cpu.data     20461287                       # number of overall miss cycles
system.cpu.l2cache.overall_miss_latency::total     61521625                       # number of overall miss cycles
system.cpu.l2cache.ReadExReq_accesses::.cpu.data           61                       # number of ReadExReq accesses(hits+misses)
system.cpu.l2cache.ReadExReq_accesses::total           61                       # number of ReadExReq accesses(hits+misses)
system.cpu.l2cache.ReadSharedReq_accesses::.cpu.inst          391                       # number of ReadSharedReq accesses(hits+misses)
system.cpu.l2cache.ReadSharedReq_accesses::.cpu.data          135                       # number of ReadSharedReq accesses(hits+misses)
system.cpu.l2cache.ReadSharedReq_accesses::total          526                       # number of ReadSharedReq accesses(hits+misses)
system.cpu.l2cache.demand_accesses::.cpu.inst          391                       # number of demand (read+write) accesses
system.cpu.l2cache.demand_accesses::.cpu.data          196                       # number of demand (read+write) accesses
system.cpu.l2cache.demand_accesses::total          587                       # number of demand (read+write) accesses
system.cpu.l2cache.overall_accesses::.cpu.inst          391                       # number of overall (read+write) accesses
system.cpu.l2cache.overall_accesses::.cpu.data          196                       # number of overall (read+write) accesses
system.cpu.l2cache.overall_accesses::total          587                       # number of overall (read+write) accesses
system.cpu.l2cache.ReadExReq_miss_rate::.cpu.data            1                       # miss rate for ReadExReq accesses
system.cpu.l2cache.ReadExReq_miss_rate::total            1                       # miss rate for ReadExReq accesses
system.cpu.l2cache.ReadSharedReq_miss_rate::.cpu.inst     0.902813                       # miss rate for ReadSharedReq accesses
system.cpu.l2cache.ReadSharedReq_miss_rate::.cpu.data     0.829630                       # miss rate for ReadSharedReq accesses
system.cpu.l2cache.ReadSharedReq_miss_rate::total     0.884030                       # miss rate for ReadSharedReq accesses
system.cpu.l2cache.demand_miss_rate::.cpu.inst     0.902813                       # miss rate for demand accesses
system.cpu.l2cache.demand_miss_rate::.cpu.data     0.882653                       # miss rate for demand accesses
system.cpu.l2cache.demand_miss_rate::total     0.896082                       # miss rate for demand accesses
system.cpu.l2cache.overall_miss_rate::.cpu.inst     0.902813                       # miss rate for overall accesses
system.cpu.l2cache.overall_miss_rate::.cpu.data     0.882653                       # miss rate for overall accesses
system.cpu.l2cache.overall_miss_rate::total     0.896082                       # miss rate for overall accesses
system.cpu.l2cache.ReadExReq_avg_miss_latency::.cpu.data 116199.672131                       # average ReadExReq miss latency
system.cpu.l2cache.ReadExReq_avg_miss_latency::total 116199.672131                       # average ReadExReq miss latency
system.cpu.l2cache.ReadSharedReq_avg_miss_latency::.cpu.inst 116318.237960                       # average ReadSharedReq miss latency
system.cpu.l2cache.ReadSharedReq_avg_miss_latency::.cpu.data 119402.741071                       # average ReadSharedReq miss latency
system.cpu.l2cache.ReadSharedReq_avg_miss_latency::total 117061.172043                       # average ReadSharedReq miss latency
system.cpu.l2cache.demand_avg_miss_latency::.cpu.inst 116318.237960                       # average overall miss latency
system.cpu.l2cache.demand_avg_miss_latency::.cpu.data 118273.335260                       # average overall miss latency
system.cpu.l2cache.demand_avg_miss_latency::total 116961.264259                       # average overall miss latency
system.cpu.l2cache.overall_avg_miss_latency::.cpu.inst 116318.237960                       # average overall miss latency
system.cpu.l2cache.overall_avg_miss_latency::.cpu.data 118273.335260                       # average overall miss latency
system.cpu.l2cache.overall_avg_miss_latency::total 116961.264259                       # average overall miss latency
system.cpu.l2cache.blocked_cycles::no_mshrs            0                       # number of cycles access was blocked
system.cpu.l2cache.blocked_cycles::no_targets            0                       # number of cycles access was blocked
system.cpu.l2cache.blocked::no_mshrs                0                       # number of cycles access was blocked
system.cpu.l2cache.blocked::no_targets              0                       # number of cycles access was blocked
system.cpu.l2cache.avg_blocked_cycles::no_mshrs          nan                       # average number of cycles each access was blocked
system.cpu.l2cache.avg_blocked_cycles::no_targets          nan                       # average number of cycles each access was blocked
system.cpu.l2cache.ReadSharedReq_mshr_hits::.cpu.data            6                       # number of ReadSharedReq MSHR hits
system.cpu.l2cache.ReadSharedReq_mshr_hits::total            6                       # number of ReadSharedReq MSHR hits
system.cpu.l2cache.demand_mshr_hits::.cpu.data            6                       # number of demand (read+write) MSHR hits
system.cpu.l2cache.demand_mshr_hits::total            6                       # number of demand (read+write) MSHR hits
system.cpu.l2cache.overall_mshr_hits::.cpu.data            6                       # number of overall MSHR hits
system.cpu.l2cache.overall_mshr_hits::total            6                       # number of overall MSHR hits
system.cpu.l2cache.ReadExReq_mshr_misses::.cpu.data           61                       # number of ReadExReq MSHR misses
system.cpu.l2cache.ReadExReq_mshr_misses::total           61                       # number of ReadExReq MSHR misses
system.cpu.l2cache.ReadSharedReq_mshr_misses::.cpu.inst          353                       # number of ReadSharedReq MSHR misses
system.cpu.l2cache.ReadSharedReq_mshr_misses::.cpu.data          106                       # number of ReadSharedReq MSHR misses
system.cpu.l2cache.ReadSharedReq_mshr_misses::total          459                       # number of ReadSharedReq MSHR misses
system.cpu.l2cache.demand_mshr_misses::.cpu.inst          353                       # number of demand (read+write) MSHR misses
system.cpu.l2cache.demand_mshr_misses::.cpu.data          167                       # number of demand (read+write) MSHR misses
system.cpu.l2cache.demand_mshr_misses::total          520                       # number of demand (read+write) MSHR misses
system.cpu.l2cache.overall_mshr_misses::.cpu.inst          353                       # number of overall MSHR misses
system.cpu.l2cache.overall_mshr_misses::.cpu.data          167                       # number of overall MSHR misses
system.cpu.l2cache.overall_mshr_misses::total          520                       # number of overall MSHR misses
system.cpu.l2cache.ReadExReq_mshr_miss_latency::.cpu.data      5732760                       # number of ReadExReq MSHR miss cycles
system.cpu.l2cache.ReadExReq_mshr_miss_latency::total      5732760                       # number of ReadExReq MSHR miss cycles
system.cpu.l2cache.ReadSharedReq_mshr_miss_latency::.cpu.inst     33238898                       # number of ReadSharedReq MSHR miss cycles
system.cpu.l2cache.ReadSharedReq_mshr_miss_latency::.cpu.data     10218978                       # number of ReadSharedReq MSHR miss cycles
system.cpu.l2cache.ReadSharedReq_mshr_miss_latency::total     43457876                       # number of ReadSharedReq MSHR miss cycles
system.cpu.l2cache.demand_mshr_miss_latency::.cpu.inst     33238898                       # number of demand (read+write) MSHR miss cycles
system.cpu.l2cache.demand_mshr_miss_latency::.cpu.data     15951738                       # number of demand (read+write) MSHR miss cycles
system.cpu.l2cache.demand_mshr_miss_latency::total     49190636                       # number of demand (read+write) MSHR miss cycles
system.cpu.l2cache.overall_mshr_miss_latency::.cpu.inst     33238898                       # number of overall MSHR miss cycles
system.cpu.l2cache.overall_mshr_miss_latency::.cpu.data     15951738                       # number of overall MSHR miss cycles
system.cpu.l2cache.overall_mshr_miss_latency::total     49190636                       # number of overall MSHR miss cycles
system.cpu.l2cache.ReadExReq_mshr_miss_rate::.cpu.data            1                       # mshr miss rate for ReadExReq accesses
system.cpu.l2cache.ReadExReq_mshr_miss_rate::total            1                       # mshr miss rate for ReadExReq accesses
system.cpu.l2cache.ReadSharedReq_mshr_miss_rate::.cpu.inst     0.902813                       # mshr miss rate for ReadSharedReq accesses
system.cpu.l2cache.ReadSharedReq_mshr_miss_rate::.cpu.data     0.785185                       # mshr miss rate for ReadSharedReq accesses
system.cpu.l2cache.ReadSharedReq_mshr_miss_rate::total     0.872624                       # mshr miss rate for ReadSharedReq accesses
system.cpu.l2cache.demand_mshr_miss_rate::.cpu.inst     0.902813                       # mshr miss rate for demand accesses
system.cpu.l2cache.demand_mshr_miss_rate::.cpu.data     0.852041                       # mshr miss rate for demand accesses
system.cpu.l2cache.demand_mshr_miss_rate::total     0.885860                       # mshr miss rate for demand accesses
system.cpu.l2cache.overall_mshr_miss_rate::.cpu.inst     0.902813                       # mshr miss rate for overall accesses
system.cpu.l2cache.overall_mshr_miss_rate::.cpu.data     0.852041                       # mshr miss rate for overall accesses
system.cpu.l2cache.overall_mshr_miss_rate::total     0.885860                       # mshr miss rate for overall accesses
system.cpu.l2cache.ReadExReq_avg_mshr_miss_latency::.cpu.data 93979.672131                       # average ReadExReq mshr miss latency
system.cpu.l2cache.ReadExReq_avg_mshr_miss_latency::total 93979.672131                       # average ReadExReq mshr miss latency
system.cpu.l2cache.ReadSharedReq_avg_mshr_miss_latency::.cpu.inst 94161.184136                       # average ReadSharedReq mshr miss latency
system.cpu.l2cache.ReadSharedReq_avg_mshr_miss_latency::.cpu.data 96405.452830                       # average ReadSharedReq mshr miss latency
system.cpu.l2cache.ReadSharedReq_avg_mshr_miss_latency::total 94679.468410                       # average ReadSharedReq mshr miss latency
system.cpu.l2cache.demand_avg_mshr_miss_latency::.cpu.inst 94161.184136                       # average overall mshr miss latency
system.cpu.l2cache.demand_avg_mshr_miss_latency::.cpu.data 95519.389222                       # average overall mshr miss latency
system.cpu.l2cache.demand_avg_mshr_miss_latency::total 94597.376923                       # average overall mshr miss latency
system.cpu.l2cache.overall_avg_mshr_miss_latency::.cpu.inst 94161.184136                       # average overall mshr miss latency
system.cpu.l2cache.overall_avg_mshr_miss_latency::.cpu.data 95519.389222                       # average overall mshr miss latency
system.cpu.l2cache.overall_avg_mshr_miss_latency::total 94597.376923                       # average overall mshr miss latency
system.cpu.l2cache.replacements                     0                       # number of replacements
system.l2bus.snoop_filter.tot_requests            665                       # Total number of requests made to the snoop filter.
system.l2bus.snoop_filter.hit_single_requests          116                       # Number of requests hitting in the snoop filter with a single holder of the requested data.
system.l2bus.snoop_filter.hit_multi_requests           15                       # Number of requests hitting in the snoop filter with multiple (>1) holders of the requested data.
system.l2bus.snoop_filter.tot_snoops                0                       # Total number of snoops made to the snoop filter.
system.l2bus.snoop_filter.hit_single_snoops            0                       # Number of snoops hitting in the snoop filter with a single holder of the requested data.
system.l2bus.snoop_filter.hit_multi_snoops            0                       # Number of snoops hitting in the snoop filter with multiple (>1) holders of the requested data.
system.l2bus.pwrStateResidencyTicks::UNDEFINED     67605461                       # Cumulative time (in ticks) in various power states
system.l2bus.trans_dist::ReadResp                 525                       # Transaction distribution
system.l2bus.trans_dist::CleanEvict                78                       # Transaction distribution
system.l2bus.trans_dist::ReadExReq                 61                       # Transaction distribution
system.l2bus.trans_dist::ReadExResp                61                       # Transaction distribution
system.l2bus.trans_dist::ReadSharedReq            526                       # Transaction distribution
system.l2bus.pkt_count_system.cpu.icache.mem_side::system.cpu.l2cache.cpu_side          859                       # Packet count per connected master and slave (bytes)
system.l2bus.pkt_count_system.cpu.dcache.mem_side::system.cpu.l2cache.cpu_side          392                       # Packet count per connected master and slave (bytes)
system.l2bus.pkt_count::total                    1251                       # Packet count per connected master and slave (bytes)
system.l2bus.pkt_size_system.cpu.icache.mem_side::system.cpu.l2cache.cpu_side        24960                       # Cumulative packet size per connected master and slave (bytes)
system.l2bus.pkt_size_system.cpu.dcache.mem_side::system.cpu.l2cache.cpu_side        12544                       # Cumulative packet size per connected master and slave (bytes)
system.l2bus.pkt_size::total                    37504                       # Cumulative packet size per connected master and slave (bytes)
system.l2bus.snoops                                 0                       # Total snoops (count)
system.l2bus.snoopTraffic                           0                       # Total snoop traffic (bytes)
system.l2bus.snoop_fanout::samples                587                       # Request fanout histogram
system.l2bus.snoop_fanout::mean              0.090290                       # Request fanout histogram
system.l2bus.snoop_fanout::stdev             0.286841                       # Request fanout histogram
system.l2bus.snoop_fanout::underflows               0      0.00%      0.00% # Request fanout histogram
system.l2bus.snoop_fanout::0                      534     90.97%     90.97% # Request fanout histogram
system.l2bus.snoop_fanout::1                       53      9.03%    100.00% # Request fanout histogram
system.l2bus.snoop_fanout::2                        0      0.00%    100.00% # Request fanout histogram
system.l2bus.snoop_fanout::overflows                0      0.00%    100.00% # Request fanout histogram
system.l2bus.snoop_fanout::min_value                0                       # Request fanout histogram
system.l2bus.snoop_fanout::max_value                1                       # Request fanout histogram
system.l2bus.snoop_fanout::total                  587                       # Request fanout histogram
system.l2bus.reqLayer0.occupancy               738815                       # Layer occupancy (ticks)
system.l2bus.reqLayer0.utilization                1.1                       # Layer utilization (%)
system.l2bus.respLayer0.occupancy             2166450                       # Layer occupancy (ticks)
system.l2bus.respLayer0.utilization               3.2                       # Layer utilization (%)
system.l2bus.respLayer1.occupancy             1095440                       # Layer occupancy (ticks)
system.l2bus.respLayer1.utilization               1.6                       # Layer utilization (%)
system.membus.snoop_filter.tot_requests           519                       # Total number of requests made to the snoop filter.
system.membus.snoop_filter.hit_single_requests            0                       # Number of requests hitting in the snoop filter with a single holder of the requested data.
system.membus.snoop_filter.hit_multi_requests            0                       # Number of requests hitting in the snoop filter with multiple (>1) holders of the requested data.
system.membus.snoop_filter.tot_snoops               0                       # Total number of snoops made to the snoop filter.
system.membus.snoop_filter.hit_single_snoops            0                       # Number of snoops hitting in the snoop filter with a single holder of the requested data.
system.membus.snoop_filter.hit_multi_snoops            0                       # Number of snoops hitting in the snoop filter with multiple (>1) holders of the requested data.
system.membus.pwrStateResidencyTicks::UNDEFINED     67605461                       # Cumulative time (in ticks) in various power states
system.membus.trans_dist::ReadResp                458                       # Transaction distribution
system.membus.trans_dist::ReadExReq                61                       # Transaction distribution
system.membus.trans_dist::ReadExResp               61                       # Transaction distribution
system.membus.trans_dist::ReadSharedReq           458                       # Transaction distribution
system.membus.pkt_count_system.cpu.l2cache.mem_side::system.mem_ctrl.port         1038                       # Packet count per connected master and slave (bytes)
system.membus.pkt_count::total                   1038                       # Packet count per connected master and slave (bytes)
system.membus.pkt_size_system.cpu.l2cache.mem_side::system.mem_ctrl.port        33216                       # Cumulative packet size per connected master and slave (bytes)
system.membus.pkt_size::total                   33216                       # Cumulative packet size per connected master and slave (bytes)
system.membus.snoops                                0                       # Total snoops (count)
system.membus.snoopTraffic                          0                       # Total snoop traffic (bytes)
system.membus.snoop_fanout::samples               519                       # Request fanout histogram
system.membus.snoop_fanout::mean                    0                       # Request fanout histogram
system.membus.snoop_fanout::stdev                   0                       # Request fanout histogram
system.membus.snoop_fanout::underflows              0      0.00%      0.00% # Request fanout histogram
system.membus.snoop_fanout::0                     519    100.00%    100.00% # Request fanout histogram
system.membus.snoop_fanout::1                       0      0.00%    100.00% # Request fanout histogram
system.membus.snoop_fanout::overflows               0      0.00%    100.00% # Request fanout histogram
system.membus.snoop_fanout::min_value               0                       # Request fanout histogram
system.membus.snoop_fanout::max_value               0                       # Request fanout histogram
system.membus.snoop_fanout::total                 519                       # Request fanout histogram
system.membus.reqLayer0.occupancy              576609                       # Layer occupancy (ticks)
system.membus.reqLayer0.utilization               0.9                       # Layer utilization (%)
system.membus.respLayer0.occupancy            3237998                       # Layer occupancy (ticks)
system.membus.respLayer0.utilization              4.8                       # Layer utilization (%)

---------- End Simulation Statistics   ----------
